Circuit: * SPICE3 file created from test.ext - technology: scmos .option scale=1u

Rgnd: both pins shorted together -- ignoring.
Early termination of direct N-R iteration.
Direct Newton iteration failed to find .op point.  (Use ".option noopiter" to skip.)
Starting Gmin stepping
Gmin = 10
Gmin = 1.07374
Gmin = 0.115292
Gmin = 0.0123794
Gmin = 0.00132923
vernier = 0.5
vernier = 0.25
Gmin = 0.000630435
vernier = 0.333333
vernier = 0.444444
Gmin = 0.00027983
vernier = 0.592592
Gmin = 8.01452e-005
vernier = 0.790123
vernier = 1
Gmin = 1.11306e-005
Gmin = 1.19514e-006
Gmin = 1.28327e-007
Gmin = 1.3779e-008
Gmin = 1.47951e-009
Gmin = 1.58861e-010
Gmin = 1.70576e-011
Gmin = 1.83154e-012
Gmin = 1.9666e-013
Gmin = 0
Gmin stepping succeeded in finding the operating point.

Heightened Def Con from 3e-008 to 3e-008
Heightened Def Con from 3e-008 to 3e-008
Heightened Def Con from 3e-008 to 3e-008
Heightened Def Con from 3e-008 +to 3e-008
Heightened Def Con from 3e-008 +to 3e-008
Heightened Def Con from 3e-008 +to 3e-008
Heightened Def Con from 3e-008 +to 3e-008
Heightened Def Con from 3e-008 ++to 3e-008
Heightened Def Con from 3e-008 ++to 3e-008
Heightened Def Con from 3e-008 ++to 3e-008
Heightened Def Con from 3e-008 ++to 3e-008
Heightened Def Con from 3e-008 ++to 3e-008
Heightened Def Con from 3.00002e-008 ++++++++++++++++++++++++++to 3.00005e-008
Heightened Def Con from 3.00005e-008 +++++++++++++++++++++to 3.00982e-008
Heightened Def Con from 5.00007e-008 to 5.00007e-008
Heightened Def Con from 5.00007e-008 to 5.00007e-008
Heightened Def Con from 5.00007e-008 to 5.00007e-008
Heightened Def Con from 5.00007e-008 to 5.00007e-008
Heightened Def Con from 5.00007e-008 to 5.00007e-008
Heightened Def Con from 5.00007e-008 to 5.00007e-008
Heightened Def Con from 5.00007e-008 +to 5.00007e-008
Heightened Def Con from 5.00007e-008 ++to 5.00007e-008
Heightened Def Con from 5.00007e-008 ++to 5.00007e-008
Heightened Def Con from 5.00007e-008 ++to 5.00007e-008
Heightened Def Con from 5.00007e-008 ++to 5.00007e-008
Heightened Def Con from 5.00007e-008 to 5.00007e-008
Heightened Def Con from 5.00007e-008 to 5.00007e-008
Heightened Def Con from 5.00007e-008 to 5.00007e-008
Heightened Def Con from 5.00007e-008 to 5.00007e-008
Heightened Def Con from 5.00007e-008 to 5.00007e-008
Heightened Def Con from 5.00007e-008 to 5.00007e-008
Heightened Def Con from 5.00007e-008 +to 5.00007e-008
Heightened Def Con from 5.00007e-008 +to 5.00007e-008
Heightened Def Con from 5.00007e-008 ++to 5.00007e-008
Heightened Def Con from 5.00007e-008 ++to 5.00007e-008
Heightened Def Con from 5.00007e-008 ++to 5.00007e-008
Heightened Def Con from 5.00007e-008 ++to 5.00007e-008
Heightened Def Con from 5.00008e-008 +++++++++++++++++++++++++to 5.0001e-008
Heightened Def Con from 6e-008 to 6e-008
Heightened Def Con from 6e-008 to 6e-008
Heightened Def Con from 6e-008 to 6e-008
Heightened Def Con from 6e-008 +to 6e-008
Heightened Def Con from 6e-008 +to 6e-008
Heightened Def Con from 6e-008 +to 6e-008
Heightened Def Con from 6e-008 +to 6e-008
Heightened Def Con from 6e-008 ++to 6e-008
Heightened Def Con from 6e-008 ++to 6e-008
Heightened Def Con from 6e-008 ++to 6e-008
Heightened Def Con from 6e-008 ++to 6e-008
Heightened Def Con from 6e-008 ++to 6e-008
Heightened Def Con from 6.00002e-008 to 6.00002e-008
Heightened Def Con from 6.00002e-008 ++to 6.00002e-008
Heightened Def Con from 6.00002e-008 ++to 6.00002e-008
Heightened Def Con from 6.00002e-008 +++to 6.00002e-008
Heightened Def Con from 6.00002e-008 ++++to 6.00002e-008
Heightened Def Con from 6.00002e-008 ++++to 6.00002e-008
Heightened Def Con from 6.00002e-008 ++++to 6.00002e-008
Heightened Def Con from 6.00002e-008 +++++to 6.00002e-008
Heightened Def Con from 6.00002e-008 +++++to 6.00002e-008
Heightened Def Con from 6.00002e-008 +++++++++++++to 6.00002e-008
Heightened Def Con from 6.00002e-008 ++++++++++++++to 6.00002e-008
Heightened Def Con from 6.00002e-008 ++++++++++++++to 6.00002e-008
Heightened Def Con from 6.00002e-008 ++++++++++++++to 6.00002e-008
Heightened Def Con from 6.00002e-008 +++++++++++++++to 6.00002e-008
Heightened Def Con from 6.00002e-008 +++++++++++++++to 6.00002e-008
Heightened Def Con from 6.00002e-008 +++++++++++++++to 6.00002e-008
Heightened Def Con from 6.00002e-008 ++++++++++++++++to 6.00002e-008
Heightened Def Con from 6.00002e-008 ++++++++++++++++to 6.00002e-008
Heightened Def Con from 6.00002e-008 ++++++++++++++++to 6.00002e-008
Heightened Def Con from 6.00002e-008 ++++++++++++++++to 6.00002e-008
Heightened Def Con from 6.00002e-008 ++++++++++++++++to 6.00002e-008
Heightened Def Con from 6.00002e-008 ++++++++++++++++to 6.00002e-008
Heightened Def Con from 6.00002e-008 ++++++++++++++++to 6.00002e-008
Heightened Def Con from 6.00002e-008 +++++++++++++++++to 6.00002e-008
Heightened Def Con from 6.00002e-008 +++++++++++++++++to 6.00002e-008
Heightened Def Con from 6.00002e-008 +++++++++++++++++to 6.00002e-008
Heightened Def Con from 6.00002e-008 +++++++++++++++++to 6.00002e-008
Heightened Def Con from 6.00002e-008 +++